%chk=MnFeCO4-_cc_8th_C1.chk
%nprocshared=1
%mem=1500MB
# opt=cartesian freq b3lyp/6-31+g(d) scf=(maxcyc=80,xqc)

Title Card Required

-1 8
 Fe                -1.03043400    0.00162800   -0.04977800
 C                 -1.89518700    1.42555300   -0.76791800
 C                 -1.88717400   -1.41069400   -0.79971500
 C                 -1.79518500   -0.02011500    1.60702400
 O                 -2.50353900   -2.30647100   -1.27891000
 O                 -2.51614600    2.32797000   -1.22867400
 O                 -2.30986100   -0.03381200    2.67701100
 Mn                 4.12518300   -0.00042300   -0.03399700
 C                  2.12090500    0.00796000    0.02881300
 O                  0.89538600    0.00626400    0.04318900




