%chk=MnFeCO4-_a_3th.chk
%mem=1500MB
# B3LYP/6-31+G opt=cartesian freq scf=(maxcyc=80,xqc)

Title Card Required

-1 3
 Fe                 0.85387326    0.47535211    0.00000000
 C                  1.49721773    1.38515445   -1.57583869
 C                  1.49718451   -1.34427715    0.00000000
 C                  1.49721773    1.38515445    1.57583869
 C                 -1.07612674    0.47537589    0.00000000
 O                  1.86902417    1.91095421    2.48655915
 O                  1.86897175   -2.39589087   -0.00000000
 O                  1.86902417    1.91095421   -2.48655915
 O                 -2.19152674    0.47540014   -0.00000042
 Mn                 2.07758661    3.26120571    4.06814778




