%chk=MnFeCO4-_bbb2_1th.chk
%mem=1500MB
# opt=cartesian freq ub3lyp/6-31+g nosymm scf=qc 

Title Card Required

-1 1
 Mn                 0.46452400    0.00837900   -0.02811900
 Fe                -1.82822400    0.31399100    0.39726100
 C                 -0.18539600   -1.60380900   -0.69907900
 C                  0.52891600   -0.11040000    1.83163100
 C                  2.24137100    0.02029600   -0.64229200
 C                 -0.42867900    1.59192400   -0.65135600
 O                  3.36086000   -0.01123200   -1.05108000
 O                  0.64465300   -0.20626300    3.02123700
 O                 -0.51671900   -2.67734900   -1.11758100
 O                 -0.61821700    2.67308100   -1.17001000








