%chk=MnFeCO4-_cc_3th.chk
%nprocshared=1
%mem=1500MB
# opt=cartesian freq b3lyp/6-31+g scf=(maxcyc=80,xqc)

Title Card Required

-1 3
 Fe                 0.00000000    0.00000000    0.00000000
 C                  0.00000000    0.00000000    1.93000000
 C                  1.91283586    0.00000000   -0.25682483
 C                 -0.67418326    1.61060116   -0.82239944
 O                  3.01831623    0.00000000   -0.40525094
 O                  0.00000000    0.00000000    3.04540001
 O                 -1.06382109    2.54141103   -1.29768097
 Mn                -3.95656830   -2.96351872   -1.05082077
 C                 -2.22982990   -1.93465489   -1.04373488
 O                 -1.37441610   -1.19247698   -0.64333429











